24
GROMOS, t= 1.00000
C         52.59000       40.61000       77.94000
C         52.44000       42.11000       78.00000
C         53.80000       42.76000       77.86000
C         53.66000       44.26000       77.92000
O         54.91000       44.87000       77.78000
H         55.19000       45.08000       78.71000
C         97.22000       14.11000       98.69000
C         95.72000       14.04000       98.82000
C         95.14000       15.44000       98.76000
C         93.63000       15.37000       98.89000
O         93.09000       16.66000       98.83000
H         92.95000       16.91000       99.77000
C         86.78000       31.62000       50.34000
C         86.53000       31.81000       48.86000
C         86.53000       30.46000       48.17000
C         86.28000       30.64000       46.69000
O         86.28000       29.40000       46.06000
H         87.19000       29.32000       45.67000
C         84.56000       32.24000        5.82000
C         85.88000       32.73000        6.36000
C         85.86000       34.25000        6.42000
C         87.19000       34.75000        6.97000
O         87.18000       36.14000        7.02000
H         87.65000       36.43000        6.20000
24
GROMOS, t= 2.00000
C         52.59000       40.61000       77.94000
C         52.44000       42.11000       78.00000
C         53.80000       42.76000       77.86000
C         53.66000       44.26000       77.92000
O         54.91000       44.87000       77.78000
H         55.19000       45.08000       78.71000
C         97.22000       14.11000       98.69000
C         95.72000       14.04000       98.82000
C         95.14000       15.44000       98.76000
C         93.63000       15.37000       98.89000
O         93.09000       16.66000       98.83000
H         92.95000       16.91000       99.77000
C         86.78000       31.62000       50.34000
C         86.53000       31.81000       48.86000
C         86.53000       30.46000       48.17000
C         86.28000       30.64000       46.69000
O         86.28000       29.40000       46.06000
H         87.19000       29.32000       45.67000
C         84.56000       32.24000        5.82000
C         85.88000       32.73000        6.36000
C         85.86000       34.25000        6.42000
C         87.19000       34.75000        6.97000
O         87.18000       36.14000        7.02000
H         87.65000       36.43000        6.20000
24
GROMOS, t= 3.00000
C         52.59000       40.61000       77.94000
C         52.44000       42.11000       78.00000
C         53.80000       42.76000       77.86000
C         53.66000       44.26000       77.92000
O         54.91000       44.87000       77.78000
H         55.19000       45.08000       78.71000
C         97.22000       14.11000       98.69000
C         95.72000       14.04000       98.82000
C         95.14000       15.44000       98.76000
C         93.63000       15.37000       98.89000
O         93.09000       16.66000       98.83000
H         92.95000       16.91000       99.77000
C         86.78000       31.62000       50.34000
C         86.53000       31.81000       48.86000
C         86.53000       30.46000       48.17000
C         86.28000       30.64000       46.69000
O         86.28000       29.40000       46.06000
H         87.19000       29.32000       45.67000
C         84.56000       32.24000        5.82000
C         85.88000       32.73000        6.36000
C         85.86000       34.25000        6.42000
C         87.19000       34.75000        6.97000
O         87.18000       36.14000        7.02000
H         87.65000       36.43000        6.20000
24
GROMOS, t= 4.00000
C         52.59000       40.61000       77.94000
C         52.44000       42.11000       78.00000
C         53.80000       42.76000       77.86000
C         53.66000       44.26000       77.92000
O         54.91000       44.87000       77.78000
H         55.19000       45.08000       78.71000
C         97.22000       14.11000       98.69000
C         95.72000       14.04000       98.82000
C         95.14000       15.44000       98.76000
C         93.63000       15.37000       98.89000
O         93.09000       16.66000       98.83000
H         92.95000       16.91000       99.77000
C         86.78000       31.62000       50.34000
C         86.53000       31.81000       48.86000
C         86.53000       30.46000       48.17000
C         86.28000       30.64000       46.69000
O         86.28000       29.40000       46.06000
H         87.19000       29.32000       45.67000
C         84.56000       32.24000        5.82000
C         85.88000       32.73000        6.36000
C         85.86000       34.25000        6.42000
C         87.19000       34.75000        6.97000
O         87.18000       36.14000        7.02000
H         87.65000       36.43000        6.20000
